[General]
network = inet.examples.ieee80211.ofdma.Lan80211AxOfdma
sim-time-limit = 2.0s

# Area size and placement
**.constraintAreaMinX = 0m
**.constraintAreaMinY = 0m
**.constraintAreaMinZ = 0m
**.constraintAreaMaxX = 600m
**.constraintAreaMaxY = 400m
**.constraintAreaMaxZ = 0m

# Stationary coordinates
**.ap.mobility.typename = "StationaryMobility"
**.ap.mobility.initialX = 100m
**.ap.mobility.initialY = 100m
**.ap.mobility.initialZ = 0m

**.host[0].mobility.typename = "StationaryMobility"
**.host[0].mobility.initialX = 150m
**.host[0].mobility.initialY = 200m
**.host[0].mobility.initialZ = 0m

**.host[1].mobility.typename = "StationaryMobility"
**.host[1].mobility.initialX = 200m
**.host[1].mobility.initialY = 150m
**.host[1].mobility.initialZ = 0m

**.host[2].mobility.typename = "StationaryMobility"
**.host[2].mobility.initialX = 150m
**.host[2].mobility.initialY = 150m
**.host[2].mobility.initialZ = 0m

**.mobility.initFromDisplayString = false

# Addressing
**.ap.wlan[*].address = "10:00:00:00:00:00"
**.host[*].**.mgmt.accessPointAddress = "10:00:00:00:00:00"
**.arp.typename = "GlobalArp"

# Radio medium setting to allow concurrent OFDMA sub-transmissions
*.radioMedium.sameTransmissionStartTimeCheck = "ignore"

# 802.11ax HE configurations
**.opMode = "ax"
**.bandName = "5 GHz (20 MHz)"
**.centerFrequency = 5GHz
**.wlan[*].bitrate = 14.625Mbps
**.wlan[*].radio.transmitter.power = 10mW
**.wlan[*].radio.receiver.sensitivity = -85dBm
**.wlan[*].radio.receiver.snirThreshold = 4dB
**.displayHeMuSignalDetails = true
**.heMuSignalLabelMaxUsers = 3
**.displayHeMuSignalPhyFields = true

# Enable QoS classification and multi-user queuing (Hcf/HeHcf)
**.mac.qosStation = true
**.wlan[*].classifier.typename = "ExampleQosClassifier"
**.mac.hcf.typename = "HeHcf"
**.ap.wlan[*].mac.hcf.dlScheduler.typename = "HeDlSchedulerEqualSizedRUs"
**.ap.wlan[*].mac.hcf.dlScheduler.schedulingFunction = "fBW"
**.ap.wlan[*].mac.hcf.dlScheduler.maxMuStations = 3

# Aggregation and Block Ack settings
**.wlan[*].mac.hcf.originatorMacDataService.msduAggregationPolicy.typename = "BasicMsduAggregationPolicy"
**.isBlockAckSupported = true

# Downlink UDP Application Traffic from Server to Hosts
**.server.numApps = 3
**.server.app[0].typename = "UdpBasicApp"
**.server.app[0].packetName = "UdpBasicApp0"
**.server.app[0].destAddresses = "host[0]"
**.server.app[0].destPort = 5000
**.server.app[0].messageLength = 100B
**.server.app[0].sendInterval = 0.2ms
**.server.app[0].startTime = 0.5s

**.server.app[1].typename = "UdpBasicApp"
**.server.app[1].packetName = "UdpBasicApp1"
**.server.app[1].destAddresses = "host[1]"
**.server.app[1].destPort = 5000
**.server.app[1].messageLength = 100B
**.server.app[1].sendInterval = 0.2ms
**.server.app[1].startTime = 0.5s

**.server.app[2].typename = "UdpBasicApp"
**.server.app[2].packetName = "UdpBasicApp2"
**.server.app[2].destAddresses = "host[2]"
**.server.app[2].destPort = 5000
**.server.app[2].messageLength = 100B
**.server.app[2].sendInterval = 0.2ms
**.server.app[2].startTime = 0.5s

# Host Applications (UdpSinks)
**.host[*].numApps = 1
**.host[*].app[0].typename = "UdpSink"
**.host[*].app[0].localPort = 5000
