[General]
network = inet.examples.ieee80211ax.ul_ofdma.Lan80211AxUlOfdma
sim-time-limit = 2s

**.constraintAreaMinX = 0m
**.constraintAreaMinY = 0m
**.constraintAreaMinZ = 0m
**.constraintAreaMaxX = 50m
**.constraintAreaMaxY = 50m
**.constraintAreaMaxZ = 0m
**.mobility.typename = "StationaryMobility"
**.mobility.initFromDisplayString = false
**.mobility.updateFromDisplayString = false

**.ap.mobility.initialX = 25m
**.ap.mobility.initialY = 25m
**.host[0].mobility.initialX = 20m
**.host[0].mobility.initialY = 25m
**.host[1].mobility.initialX = 25m
**.host[1].mobility.initialY = 20m
**.host[2].mobility.initialX = 30m
**.host[2].mobility.initialY = 25m

**.ap.wlan[*].address = "10:00:00:00:00:00"
**.host[*].**.mgmt.accessPointAddress = "10:00:00:00:00:00"
**.arp.typename = "GlobalArp"

*.radioMedium.sameTransmissionStartTimeCheck = "ignore"

**.opMode = "ax"
**.bandName = "5 GHz (20 MHz)"
**.centerFrequency = 5GHz
**.wlan[*].bitrate = 14.625Mbps
**.wlan[*].radio.transmitter.power = 10mW
**.wlan[*].radio.receiver.sensitivity = -85dBm
**.wlan[*].radio.receiver.snirThreshold = 4dB

**.mac.qosStation = true
**.wlan[*].classifier.typename = "ExampleQosClassifier"
**.mac.hcf.typename = "HeHcf"
**.wlan[*].mac.hcf.enableUlMuOfdma = true
**.ap.wlan[*].mac.hcf.ulScheduler.typename = "HeUlSchedulerBacklogBased"
**.ap.wlan[*].mac.hcf.ulScheduler.minRandomAccessRus = 1
**.ap.wlan[*].mac.hcf.ulScheduler.maxRandomAccessRus = 3
**.isBlockAckSupported = true

**.server.numApps = 1
**.server.app[0].typename = "UdpSink"
**.server.app[0].localPort = 5000

**.host[*].numApps = 1
**.host[*].app[0].typename = "UdpBasicApp"
**.host[*].app[0].packetName = "UdpBasicApp-" + string(parentIndex())
**.host[*].app[0].destAddresses = "server"
**.host[*].app[0].destPort = 5000
**.host[*].app[0].messageLength = 400B
**.host[*].app[0].sendInterval = 0.4ms
**.host[*].app[0].startTime = 0.2s

[Config ScheduledOnly]
**.ap.wlan[*].mac.hcf.ulScheduler.minRandomAccessRus = 0
**.ap.wlan[*].mac.hcf.ulScheduler.maxRandomAccessRus = 0

[Config MixedUora]
**.ap.wlan[*].mac.hcf.ulScheduler.minRandomAccessRus = 1
**.ap.wlan[*].mac.hcf.ulScheduler.maxRandomAccessRus = 3
**.ap.wlan[*].mac.hcf.ulScheduler.maxMuStations = 2

[Config EqualRus]
**.ap.wlan[*].mac.hcf.ulScheduler.typename = "HeUlSchedulerEqualSizedRUs"

[Config MultiTidBlockAck]
description = "HE Multi-TID Block Ack: AP and stations negotiate Multi-TID Aggregation support"
**.ap.wlan[*].mib.heMultiTidAggregationRx = true
**.ap.wlan[*].mib.heMultiTidAggregationTx = true
**.host[*].wlan[*].mib.heMultiTidAggregationRx = true
**.host[*].wlan[*].mib.heMultiTidAggregationTx = true
