[General]
network = inet.examples.ieee80211ax.dl_ofdma.Lan80211AxDlOfdma
sim-time-limit = 0.9s

# Area size and placement
**.constraintAreaMinX = 0m
**.constraintAreaMinY = 0m
**.constraintAreaMaxX = 500m
**.constraintAreaMaxY = 400m

# Stationary coordinates
**.ap.mobility.typename = "StationaryMobility"
**.ap.mobility.initialX = 250m
**.ap.mobility.initialY = 200m

**.host[0].mobility.typename = "StationaryMobility"
**.host[0].mobility.initialX = 150m
**.host[0].mobility.initialY = 200m

**.host[1].mobility.typename = "StationaryMobility"
**.host[1].mobility.initialX = 200m
**.host[1].mobility.initialY = 150m

**.host[2].mobility.typename = "StationaryMobility"
**.host[2].mobility.initialX = 150m
**.host[2].mobility.initialY = 150m

**.mobility.initFromDisplayString = false

# Addressing
**.ap.wlan[*].address = "10:00:00:00:00:00"
**.host[*].**.mgmt.accessPointAddress = "10:00:00:00:00:00"
**.arp.typename = "GlobalArp"

# Radio medium setting to allow concurrent OFDMA sub-transmissions
*.radioMedium.sameTransmissionStartTimeCheck = "ignore"

# 802.11ax HE configurations
**.opMode = "ax"
**.bandName = "5 GHz (20 MHz)"
**.centerFrequency = 5GHz
**.wlan[*].bitrate = 14.625Mbps
**.wlan[*].radio.transmitter.power = 10mW
**.wlan[*].radio.receiver.sensitivity = -85dBm
**.wlan[*].radio.receiver.snirThreshold = 4dB
**.displayHeMuSignalDetails = true
**.heMuSignalLabelMaxUsers = 3
**.displayHeMuSignalPhyFields = true

# Enable QoS classification and multi-user queuing (Hcf/HeHcf)
**.mac.qosStation = true
**.wlan[*].classifier.typename = "ExampleQosClassifier"
**.mac.hcf.typename = "HeHcf"
**.ap.wlan[*].mac.hcf.dlScheduler.typename = "HeDlSchedulerEqualSizedRUs"
**.ap.wlan[*].mac.hcf.dlScheduler.schedulingFunction = "fBW"
**.ap.wlan[*].mac.hcf.dlScheduler.maxMuStations = 3

# Aggregation and Block Ack settings
**.wlan[*].mac.hcf.originatorMacDataService.msduAggregationPolicy.typename = "BasicMsduAggregationPolicy"
**.isBlockAckSupported = true
# The asymmetric scenarios use 1000-byte application payloads (1066-byte MAC
# frames), so keep them eligible for ADDBA negotiation and DL MU A-MPDU packing.
**.wlan[*].mac.hcf.originatorAckPolicy.maxBlockAckPolicyFrameLength = 2000B

# Downlink UDP Application Traffic from Server to Hosts
# Port 80 maps to UP_BE in ExampleQosClassifier. These configurations exercise
# DL MU scheduling, not the finite AC_VO TXOP used by port 5000 traffic.
**.server.numApps = 3
**.server.app[0].typename = "UdpBasicApp"
**.server.app[0].packetName = "UdpBasicApp0"
**.server.app[0].destAddresses = "host[0]"
**.server.app[0].destPort = 5000
**.server.app[0].messageLength = 100B
**.server.app[0].sendInterval = 0.2ms
**.server.app[0].startTime = 0.5s

**.server.app[1].typename = "UdpBasicApp"
**.server.app[1].packetName = "UdpBasicApp1"
**.server.app[1].destAddresses = "host[1]"
**.server.app[1].destPort = 5000
**.server.app[1].messageLength = 100B
**.server.app[1].sendInterval = 0.2ms
**.server.app[1].startTime = 0.5s

**.server.app[2].typename = "UdpBasicApp"
**.server.app[2].packetName = "UdpBasicApp2"
**.server.app[2].destAddresses = "host[2]"
**.server.app[2].destPort = 5000
**.server.app[2].messageLength = 100B
**.server.app[2].sendInterval = 0.2ms
**.server.app[2].startTime = 0.5s

# Host Applications (UdpSinks)
**.host[*].numApps = 1
**.host[*].app[0].typename = "UdpSink"
**.host[*].app[0].localPort = 5000

[Config EqualSizedRUs_fBW]
description = "Equal-Sized RUs Scheduler: Maximize Bandwidth occupancy (fBW)"
# (Uses the default settings from [General])

[Config SuEdcaBaseline]
description = "Identical downlink workload using legacy single-user QoS EDCA; throughput/fairness baseline for DL OFDMA."
**.mac.hcf.typename = "Hcf"

[Config EqualSizedRUs_fHoL]
description = "Equal-Sized RUs Scheduler: Minimize Head-of-Line Delay (fHoL)"
**.ap.wlan[*].mac.hcf.dlScheduler.schedulingFunction = "fHoL"

[Config BacklogBased]
description = "Backlog-Based Scheduler: Dynamic RU sizing based on queue backlogs"
**.ap.wlan[*].mac.hcf.dlScheduler.typename = "HeDlSchedulerBacklogBased"

# Generate asymmetric traffic to demonstrate dynamic RU allocation.
# Host 0: heavy traffic (large backlog)
**.server.app[0].messageLength = 1000B
**.server.app[0].sendInterval = 0.1ms

# Host 1: medium traffic
**.server.app[1].messageLength = 400B
**.server.app[1].sendInterval = 0.4ms

# Host 2: light traffic
**.server.app[2].messageLength = 100B
**.server.app[2].sendInterval = 1.0ms

[Config HoLMinDelay]
description = "Head-of-Line Minimum Delay Scheduler (comparison with Backlog-Based)"
**.ap.wlan[*].mac.hcf.dlScheduler.typename = "HeDlSchedulerHoLMinDelay"

# Generate asymmetric traffic (same as BacklogBased to allow comparison)
**.server.app[0].messageLength = 1000B
**.server.app[0].sendInterval = 0.1ms

# Host 1: medium traffic
**.server.app[1].messageLength = 400B
**.server.app[1].sendInterval = 0.4ms

# Host 2: light traffic
**.server.app[2].messageLength = 100B
**.server.app[2].sendInterval = 1.0ms

[Config WideBandwidth80MHz]
description = "Wide-Bandwidth High-Capacity OFDMA scaling: 80 MHz with 8 hosts"
*.numHosts = 8

# AP and 8 Hosts Position Settings
**.ap.mobility.initialX = 250m
**.ap.mobility.initialY = 200m

**.host[0].mobility.initialX = 150m
**.host[0].mobility.initialY = 200m

**.host[1].mobility.initialX = 200m
**.host[1].mobility.initialY = 150m

**.host[2].mobility.initialX = 150m
**.host[2].mobility.initialY = 150m

**.host[3].mobility.initialX = 350m
**.host[3].mobility.initialY = 200m

**.host[4].mobility.initialX = 300m
**.host[4].mobility.initialY = 250m

**.host[5].mobility.initialX = 350m
**.host[5].mobility.initialY = 250m

**.host[6].mobility.initialX = 200m
**.host[6].mobility.initialY = 250m

**.host[7].mobility.initialX = 150m
**.host[7].mobility.initialY = 250m

# Bandwidth configuration
**.bandName = "5 GHz (80 MHz)"
**.centerFrequency = 5.2GHz
**.channelNumber = 2
**.wlan[*].radio.receiver.bandwidth = 80MHz
**.wlan[*].radio.transmitter.power = 100mW
**.wlan[*].bitrate = 61.25Mbps

**.heMuSignalLabelMaxUsers = 8


# AP Scheduler: Equal sized RUs fBW scheduler supporting up to 8 STAs (8x 106-tone RUs)
**.ap.wlan[*].mac.hcf.dlScheduler.typename = "HeDlSchedulerEqualSizedRUs"
**.ap.wlan[*].mac.hcf.dlScheduler.schedulingFunction = "fBW"
**.ap.wlan[*].mac.hcf.dlScheduler.maxMuStations = 8

# Downlink Traffic from Server to all 8 Hosts
**.server.numApps = 8
**.server.app[*].typename = "UdpBasicApp"
**.server.app[*].destPort = 5000
**.server.app[*].messageLength = 100B
**.server.app[*].sendInterval = 0.2ms
**.server.app[*].startTime = 0.5s

# Map each app to a specific host
**.server.app[0].destAddresses = "host[0]"
**.server.app[0].packetName = "UdpBasicApp0"
**.server.app[1].destAddresses = "host[1]"
**.server.app[1].packetName = "UdpBasicApp1"
**.server.app[2].destAddresses = "host[2]"
**.server.app[2].packetName = "UdpBasicApp2"
**.server.app[3].destAddresses = "host[3]"
**.server.app[3].packetName = "UdpBasicApp3"
**.server.app[4].destAddresses = "host[4]"
**.server.app[4].packetName = "UdpBasicApp4"
**.server.app[5].destAddresses = "host[5]"
**.server.app[5].packetName = "UdpBasicApp5"
**.server.app[6].destAddresses = "host[6]"
**.server.app[6].packetName = "UdpBasicApp6"
**.server.app[7].destAddresses = "host[7]"
**.server.app[7].packetName = "UdpBasicApp7"

[Config DlMuMimo]
description = "HE Downlink MU-MIMO: 4-antenna AP spatial-multiplexes 3 stations on the same RU"
# This config uses the same 3-host, 20 MHz topology as EqualSizedRUs_fBW but
# enables HE DL MU-MIMO on the AP.  The AP conducts an NDP sounding sequence
# to collect CSI from each beamformee before scheduling spatial streams.
# After sounding, the EqualSizedRUs scheduler detects at least two MU-MIMO
# eligible candidates and builds a full-channel MU-MIMO PPDU instead of
# OFDMA sub-channel allocation.

# AP: 4 antennas + beamformer capabilities (soundingDimensions must be ≥ 2)
**.ap.wlan[*].radio.antenna.numAntennas = 4
**.ap.wlan[*].mib.heDlMuMimoBeamformer = true
**.ap.wlan[*].mib.heSoundingDimensions = 4
# Sounding feedback must reach at least two beamformees reliably.
**.wlan[*].radio.transmitter.power = 100mW

# Enable MU-MIMO sounding and scheduling in the AP HCF
**.ap.wlan[*].mac.hcf.enableDlMuMimo = true

# STAs: declare as MU-MIMO beamformees capable of feeding back CSI
# feedbackMode 2 = MU-only feedback; beamformeeSts20Mhz = max spatial streams at 20 MHz
**.host[*].wlan[*].mib.heDlMuMimoBeamformee = true
**.host[*].wlan[*].mib.heFeedbackMode = 2
**.host[*].wlan[*].mib.heBeamformeeSts20Mhz = 4

[Config MultiTidBlockAck]
description = "HE Multi-TID Block Ack: AP packs two TID flows (Voice port 5000, Network Control port 5001) into a single DL HE MU PPDU; Multi-TID BAR/Block Ack exchanges confirm delivery of both TIDs in one physical frame."
**.ap.wlan[*].mib.heMultiTidAggregationRx = true
**.ap.wlan[*].mib.heMultiTidAggregationTx = true
**.host[*].wlan[*].mib.heMultiTidAggregationRx = true
**.host[*].wlan[*].mib.heMultiTidAggregationTx = true

# DL MU-OFDMA is automatically active in HE mode when ≥2 STAs have queued
# downlink data. The AP will use HeDlMuTxOpFs, which packs Multi-TID
# A-MPDUs into one PPDU and issues Multi-TID BAR frames.
# Use sequentialBar so the AP sends one BAR per STA after the MU PPDU;
# the buildBlockAckReq path then emits Multi-TID BARs when multiTidAggregationTx
# is negotiated and the per-user A-MPDU contains frames from multiple TIDs.
**.ap.wlan[*].mac.hcf.dlMuAckMethod = "sequentialBar"

# Server sends two DL UDP streams per host (TID 6 / TID 7) so the AP
# accumulates multi-TID downlink data for concurrent station delivery.
**.server.numApps = 4
**.server.app[0].typename = "UdpBasicApp"
**.server.app[0].packetName = "DL-VO-h0"
**.server.app[0].destAddresses = "host[0]"
**.server.app[0].destPort = 5000
**.server.app[0].messageLength = 1000B
**.server.app[0].sendInterval = 5ms
**.server.app[0].startTime = 0.2s

**.server.app[1].typename = "UdpBasicApp"
**.server.app[1].packetName = "DL-NC-h0"
**.server.app[1].destAddresses = "host[0]"
**.server.app[1].destPort = 5001
**.server.app[1].messageLength = 200B
**.server.app[1].sendInterval = 10ms
**.server.app[1].startTime = 0.25s

**.server.app[2].typename = "UdpBasicApp"
**.server.app[2].packetName = "DL-VO-h1"
**.server.app[2].destAddresses = "host[1]"
**.server.app[2].destPort = 5000
**.server.app[2].messageLength = 1000B
**.server.app[2].sendInterval = 5ms
**.server.app[2].startTime = 0.2s

**.server.app[3].typename = "UdpBasicApp"
**.server.app[3].packetName = "DL-NC-h1"
**.server.app[3].destAddresses = "host[1]"
**.server.app[3].destPort = 5001
**.server.app[3].messageLength = 200B
**.server.app[3].sendInterval = 10ms
**.server.app[3].startTime = 0.25s

# Each host listens on both ports for the DL traffic
**.host[*].numApps = 2
**.host[*].app[0].typename = "UdpSink"
**.host[*].app[0].localPort = 5000
**.host[*].app[1].typename = "UdpSink"
**.host[*].app[1].localPort = 5001

[Config SingleTidBlockAckComparison]
description = "Legacy Single-TID Block Ack: Multi-TID Block Ack negotiation is disabled, forcing separate single-TID agreements and multiple BAR/BA exchanges."
extends = MultiTidBlockAck
**.ap.wlan[*].mib.heMultiTidAggregationRx = false
**.ap.wlan[*].mib.heMultiTidAggregationTx = false
**.host[*].wlan[*].mib.heMultiTidAggregationRx = false
**.host[*].wlan[*].mib.heMultiTidAggregationTx = false

[Config DlMuMimo80MHz]
description = "HE Downlink MU-MIMO on 80 MHz: 4-antenna AP spatial-multiplexes 8 stations on the same RU"
extends = WideBandwidth80MHz

# AP: 8 antennas + beamformer capabilities (soundingDimensions must be ≥ 8)
**.ap.wlan[*].radio.antenna.numAntennas = 8
**.ap.wlan[*].mib.heDlMuMimoBeamformer = true
**.ap.wlan[*].mib.heSoundingDimensions = 8
**.ap.wlan[*].mib.heLdpc = true

# Enable MU-MIMO sounding and scheduling in the AP HCF
**.ap.wlan[*].mac.hcf.enableDlMuMimo = true

# STAs: declare as MU-MIMO beamformees capable of feeding back CSI
**.host[*].wlan[*].mib.heDlMuMimoBeamformee = true
**.host[*].wlan[*].mib.heFeedbackMode = 2
**.host[*].wlan[*].mib.heBeamformeeSts20Mhz = 4
**.host[*].wlan[*].mib.heBeamformeeStsAbove20Mhz = 4
**.host[*].wlan[*].mib.heLdpc = true

[Config QosScheduling]
description = "QoS-Aware Scheduling: AP prioritizes AC_VO (port 5000) over AC_BE (port 80) in downlink RU allocation."
extends = EqualSizedRUs_fBW
# host[1] is mapped to port 80 (AC_BE), while host[0] and host[2] stay on port 5000 (AC_VO)
**.server.app[1].destPort = 80
# Set host[1]'s local sink app to listen on port 80
**.host[1].app[0].localPort = 80

[Config SoundingOverhead]
description = "Sounding Overhead: Runs multiple intervals to compare the CSI freshness vs overhead tradeoff."
extends = DlMuMimo80MHz
**.ap.wlan[*].mac.hcf.csiValidityDuration = ${soundingInterval = 10ms, 1s}



