[General]
network = inet.examples.ieee80211ax.he_features.Lan80211AxHeFeatures
sim-time-limit = 1s

# Area size and placement
**.constraintAreaMinX = 0m
**.constraintAreaMinY = 0m
**.constraintAreaMaxX = 700m
**.constraintAreaMaxY = 500m

# Stationary coordinates
**.ap.mobility.typename = "StationaryMobility"
**.host[*].mobility.typename = "StationaryMobility"

**.ap.mobility.initialX = 350m
**.ap.mobility.initialY = 250m

**.host[0].mobility.initialX = 250m
**.host[0].mobility.initialY = 250m

**.host[1].mobility.initialX = 350m
**.host[1].mobility.initialY = 150m

**.host[2].mobility.initialX = 450m
**.host[2].mobility.initialY = 250m

**.host[3].mobility.initialX = 350m
**.host[3].mobility.initialY = 350m

**.mobility.initFromDisplayString = false

# Addressing
**.ap.wlan[*].address = "10:00:00:00:00:00"
**.host[*].**.mgmt.accessPointAddress = "10:00:00:00:00:00"
**.arp.typename = "GlobalArp"

# Radio medium setting to allow concurrent OFDMA sub-transmissions
*.radioMedium.sameTransmissionStartTimeCheck = "ignore"

# 802.11ax HE base configuration on an 80 MHz channel.  80 MHz is required
# because preamble puncturing is only supported for 80/160 MHz operation.
**.opMode = "ax"
**.bandName = "5 GHz (80 MHz)"
**.centerFrequency = 5.2GHz
**.channelNumber = 2
**.wlan[*].radio.receiver.bandwidth = 80MHz
**.wlan[*].radio.transmitter.power = 100mW
**.wlan[*].radio.receiver.sensitivity = -85dBm
**.wlan[*].radio.receiver.snirThreshold = 4dB
**.wlan[*].bitrate = 61.25Mbps

# Enable QoS classification and multi-user queuing (Hcf/HeHcf)
**.mac.qosStation = true
**.wlan[*].classifier.typename = "ExampleQosClassifier"
**.mac.hcf.typename = "HeHcf"
# Use a backlog-aware scheduler because it calls allocateHeRus() with the
# punctured-subchannel mask, making the RU layout puncture-aware.
**.ap.wlan[*].mac.hcf.dlScheduler.typename = "HeDlSchedulerBacklogBased"
**.ap.wlan[*].mac.hcf.dlScheduler.maxMuStations = 4

# Aggregation and Block Ack settings
**.wlan[*].mac.hcf.originatorMacDataService.msduAggregationPolicy.typename = "BasicMsduAggregationPolicy"
**.isBlockAckSupported = true
**.wlan[*].mac.hcf.originatorAckPolicy.maxBlockAckPolicyFrameLength = 2000B

# Visualize HE MU signal details so that coding, PE duration, and puncturing
# mask are visible in Qtenv and in the vector/scalar outputs.
**.displayHeMuSignalDetails = true
**.heMuSignalLabelMaxUsers = 4
**.displayHeMuSignalPhyFields = true

# Downlink UDP traffic from the server to all hosts.  The relatively large
# messages create enough backlog that the scheduler requests large RUs (up to
# 484-tone once backlog exceeds the 1500 B threshold), which makes preamble
# puncturing visibly force the scheduler to downgrade RU sizes to avoid the
# disabled 20 MHz subchannel.
**.server.numApps = 8

# Stage 1: Warmup Trigger (Apps 0-3) to establish ADDBA agreements
**.server.app[0..3].typename = "UdpBasicApp"
**.server.app[0..3].destPort = 5000
**.server.app[0..3].messageLength = 1000B
**.server.app[0..3].sendInterval = 1s
**.server.app[0..3].startTime = 0.2s
**.server.app[0..3].stopTime = 0.25s
**.server.app[0].destAddresses = "host[0]"
**.server.app[0].packetName = "UdpBasicApp0-Warmup"
**.server.app[1].destAddresses = "host[1]"
**.server.app[1].packetName = "UdpBasicApp1-Warmup"
**.server.app[2].destAddresses = "host[2]"
**.server.app[2].packetName = "UdpBasicApp2-Warmup"
**.server.app[3].destAddresses = "host[3]"
**.server.app[3].packetName = "UdpBasicApp3-Warmup"

# Stage 2: Saturated Data Phase (Apps 4-7)
**.server.app[4..7].typename = "UdpBasicApp"
**.server.app[4..7].destPort = 5000
**.server.app[4..7].messageLength = 1000B
**.server.app[4..7].sendInterval = 2ms
**.server.app[4..7].startTime = 0.3s
**.server.app[4].destAddresses = "host[0]"
**.server.app[4].packetName = "UdpBasicApp0"
**.server.app[5].destAddresses = "host[1]"
**.server.app[5].packetName = "UdpBasicApp1"
**.server.app[6].destAddresses = "host[2]"
**.server.app[6].packetName = "UdpBasicApp2"
**.server.app[7].destAddresses = "host[3]"
**.server.app[7].packetName = "UdpBasicApp3"

# Host applications (UdpSinks)
**.host[*].numApps = 1
**.host[*].app[0].typename = "UdpSink"
**.host[*].app[0].localPort = 5000

# ---------------------------------------------------------------------------
# Scenario A: BCC baseline
# ---------------------------------------------------------------------------
[Config BccBaseline]
description = "Baseline HE MU-OFDMA with BCC coding, no packet extension, and no preamble puncturing."
# All HE LDPC and PE parameters default to false / 0 us.
**.ap.wlan[*].mib.heLdpc = false
**.host[*].wlan[*].mib.heLdpc = false

# ---------------------------------------------------------------------------
# Scenario B: HE LDPC timing/accounting and PER gain
# ---------------------------------------------------------------------------
[Config HeLdpc]
description = "Enable HE LDPC at AP and all STAs to demonstrate LDPC codeword accounting, tail-bit omission, packet-duration reduction, and the LDPC SNR boost in the error model."
**.ap.wlan[*].mib.heLdpc = true
**.host[*].wlan[*].mib.heLdpc = true

**.wlan[*].radio.transmitter.power = 0.05mW
**.wlan[*].radio.receiver.sensitivity = -110dBm

# ---------------------------------------------------------------------------
# Scenario C: Packet-extension (PE) metadata
# ---------------------------------------------------------------------------
[Config PacketExtension]
description = "Use a non-zero HE packet-extension duration to demonstrate PE timing metadata propagation through the HE MU PHY header."
**.ap.wlan[*].mib.heDefaultPeDurationUs = 8
**.host[*].wlan[*].mib.heDefaultPeDurationUs = 8

# ---------------------------------------------------------------------------
# Scenario D: Validated preamble-puncturing configuration and puncture-aware RU allocation
# ---------------------------------------------------------------------------
[Config PreamblePuncturing]
description = "Puncture the second 20 MHz subchannel of the 80 MHz channel. The AP validates the mask and the scheduler avoids placing RUs on the punctured subchannel."
**.ap.wlan[*].mac.hcf.hePreamblePuncturing = "0100"
# The bit string is parsed from bit 0 (primary 20 MHz) to bit 3.  "0100"
# disables subchannel index 1 while keeping the primary subchannel active.

# ---------------------------------------------------------------------------
# Scenario E: HE LDPC capability negotiation with mixed STA capabilities
# ---------------------------------------------------------------------------
[Config MixedLdpcSupport]
description = "Host 3 does not advertise HE LDPC support. The AP negotiates per-peer capabilities and falls back to BCC for any MU frame that includes host[3]."
**.ap.wlan[*].mib.heLdpc = true
**.host[0].wlan[*].mib.heLdpc = true
**.host[1].wlan[*].mib.heLdpc = true
**.host[2].wlan[*].mib.heLdpc = true
**.host[3].wlan[*].mib.heLdpc = false

# ---------------------------------------------------------------------------
# Scenario F: Combined HE LDPC, PE, and preamble puncturing
# ---------------------------------------------------------------------------
[Config CombinedHeFeatures]
description = "All featured HE PHY/MAC mechanisms enabled together: LDPC, 8 us packet extension, and one punctured 20 MHz subchannel."
**.ap.wlan[*].mib.heLdpc = true
**.host[*].wlan[*].mib.heLdpc = true
**.ap.wlan[*].mib.heDefaultPeDurationUs = 8
**.host[*].wlan[*].mib.heDefaultPeDurationUs = 8
**.ap.wlan[*].mac.hcf.hePreamblePuncturing = "0100"

# ---------------------------------------------------------------------------
# Scenario G: Preamble puncturing under active legacy interference
# ---------------------------------------------------------------------------
[Config PreamblePuncturingUnderInterference]
description = "Introduce a legacy 802.11a continuous interferer on the second 20 MHz subchannel. The AP uses preamble puncturing to communicate on the remaining 60 MHz."
extends = BccBaseline
*.hasInterferer = true

# Position the legacy interferer near the AP
*.interferer.mobility.typename = "StationaryMobility"
*.interferer.mobility.initialX = 350m
*.interferer.mobility.initialY = 240m
*.interferer.mobility.initFromDisplayString = false

# Configure the interferer to use legacy 802.11a on the second 20 MHz subchannel (5.19 GHz / channel 38)
*.interferer.wlan[*].opMode = "a"
*.interferer.**.bandName = "5 GHz (20 MHz)"
*.interferer.**.channelNumber = 9
*.interferer.wlan[*].radio.transmitter.power = 50mW
*.interferer.wlan[*].bitrate = 54Mbps
*.interferer.wlan[*].mgmt.typename = "Ieee80211MgmtAdhoc"
*.interferer.ipv4.ip.limitedBroadcast = true
*.configurator.config = xmldoc("configurator.xml")

# Puncture the second 20 MHz subchannel of the 80 MHz channel (index 1)
*.ap.wlan[*].mac.hcf.hePreamblePuncturing = "0100"

# Interferer application: generate continuous legacy traffic to jam the subchannel
*.interferer.numApps = 1
*.interferer.app[0].typename = "UdpBasicApp"
*.interferer.app[0].destAddresses = "255.255.255.255"
*.interferer.app[0].receiveBroadcast = true
*.interferer.app[0].destPort = 5000
*.interferer.app[0].messageLength = 1000B
*.interferer.app[0].sendInterval = 0.5ms
*.interferer.app[0].startTime = 0.1s

**.server.app[4..7].sendInterval = 0.5ms

# Clean-channel reference for the interference pair.  Compare this with the
# two following configurations to quantify puncturing's capacity cost and
# its resilience to a busy secondary 20 MHz subchannel.
[Config CleanChannelBaseline]
description = "Unpunctured 80 MHz HE MU-OFDMA without a legacy interferer."
extends = BccBaseline

# ---------------------------------------------------------------------------
# Scenario H: Legacy interference without preamble puncturing
# ---------------------------------------------------------------------------
[Config LegacyInterferenceWithoutPuncturing]
description = "Same active interferer on the second 20 MHz subchannel, but preamble puncturing is disabled. The entire 80 MHz channel is degraded/blocked."
extends = PreamblePuncturingUnderInterference
*.ap.wlan[*].mac.hcf.hePreamblePuncturing = ""

[Config DynamicPuncturing]
description = "Dynamic Jammer: Jammer on second 20 MHz subchannel turns ON at 0.3s and OFF at 0.6s. The AP schedules RUs dynamically, avoiding the punctured band only during active jamming."
extends = PreamblePuncturingUnderInterference
*.ap.wlan[*].mac.hcf.hePreamblePuncturing = ""
*.ap.wlan[*].mac.hcf.dynamicHePreamblePuncturing = "0100"
*.ap.wlan[*].mac.hcf.dynamicHePreamblePuncturingStart = 0.35s
*.ap.wlan[*].mac.hcf.dynamicHePreamblePuncturingEnd = 0.7s
*.interferer.app[0].startTime = 0.3s
*.interferer.app[0].stopTime = 0.7s
